LAMMPS (16 Mar 2018)

units		real
atom_style	atomic

pair_style	lj/cut 10

read_data          lammps.data
  orthogonal box = (-15 -15 -15) to (15 15 15)
  reading atoms ...
  362 atoms
  reading velocities ...
  362 velocities

mass		    1 16.04
pair_coeff	    1 1 0.2941062068 3.730

neighbor	    4 bin
neigh_modify	every 1 delay 0

fix		        1 all nve

dump 		    dump2 all custom 100 trj.lammps id type xu yu zu vx vy vz fx fy fz
dump_modify	    dump2 sort 1
dump_modify     dump2 append yes
dump_modify     dump2 format line "%8d %5d %.3f %.3f %.3f %.3e %.3e %.3e %.3e %.3e %.3e"

thermo		    100
thermo_style    custom step temp press ke pe etotal

timestep	    1
run		        10000
  update every 1 steps, delay 0 steps, check yes
Step Temp Press KinEng PotEng TotEng
0    150.41329    4155.5506     161.8556   -388.57739   -226.72179
Averages over the last 51 of 101 rows, steps 5000 to 10000:
Temp Press KinEng PotEng TotEng
217.779 718.956 234.346 -455.048 -220.702
Loop time of 2.42851 on 1 procs for 10000 steps with 362 atoms
